data_image0
_chemical_formula_structural       C4F2H6
_chemical_formula_sum              "C4 F2 H6"
_cell_length_a       8.58
_cell_length_b       4.91
_cell_length_c       2.55287
_cell_angle_alpha    90
_cell_angle_beta     90
_cell_angle_gamma    90

_space_group_name_H-M_alt    "P 1"
_space_group_IT_number       1

loop_
  _space_group_symop_operation_xyz
  'x, y, z'

loop_
  _atom_site_type_symbol
  _atom_site_label
  _atom_site_symmetry_multiplicity
  _atom_site_fract_x
  _atom_site_fract_y
  _atom_site_fract_z
  _atom_site_occupancy
  C   C1        1.0  0.02925  0.06600  0.25115  1.0000
  C   C2        1.0  0.95722  0.93732  0.75716  1.0000
  C   C3        1.0  0.46184  0.55356  0.74197  1.0000
  C   C4        1.0  0.52759  0.41599  0.23688  1.0000
  F   F1        1.0  0.20116  0.02317  0.24601  1.0000
  F   F2        1.0  0.50046  0.84926  0.75189  1.0000
  H   H1        1.0  0.00441  0.28370  0.25549  1.0000
  H   H2        1.0  0.83142  0.96811  0.76152  1.0000
  H   H3        1.0  0.98238  0.71974  0.75220  1.0000
  H   H4        1.0  0.33563  0.52852  0.73258  1.0000
  H   H5        1.0  0.65369  0.44166  0.24716  1.0000
  H   H6        1.0  0.49945  0.19935  0.22931  1.0000
