data_image0
_chemical_formula_structural       C4F2H6
_chemical_formula_sum              "C4 F2 H6"
_cell_length_a       8.58
_cell_length_b       4.91
_cell_length_c       2.55286
_cell_angle_alpha    90
_cell_angle_beta     90
_cell_angle_gamma    90

_space_group_name_H-M_alt    "P 1"
_space_group_IT_number       1

loop_
  _space_group_symop_operation_xyz
  'x, y, z'

loop_
  _atom_site_type_symbol
  _atom_site_label
  _atom_site_symmetry_multiplicity
  _atom_site_fract_x
  _atom_site_fract_y
  _atom_site_fract_z
  _atom_site_occupancy
  C   C1        1.0  0.02926  0.06600  0.25116  1.0000
  C   C2        1.0  0.95722  0.93732  0.75716  1.0000
  C   C3        1.0  0.46161  0.57401  0.74133  1.0000
  C   C4        1.0  0.51578  0.41845  0.23230  1.0000
  F   F1        1.0  0.20117  0.02317  0.24599  1.0000
  F   F2        1.0  0.68685  0.45603  0.30073  1.0000
  H   H1        1.0  0.00441  0.28369  0.25552  1.0000
  H   H2        1.0  0.83142  0.96810  0.76154  1.0000
  H   H3        1.0  0.98238  0.71974  0.75218  1.0000
  H   H4        1.0  0.33623  0.54782  0.69301  1.0000
  H   H5        1.0  0.48785  0.78970  0.78752  1.0000
  H   H6        1.0  0.49032  0.20235  0.18490  1.0000
