data_image0
_chemical_formula_structural       C4F2H6
_chemical_formula_sum              "C4 F2 H6"
_cell_length_a       8.4019
_cell_length_b       4.66229
_cell_length_c       2.5954
_cell_angle_alpha    90
_cell_angle_beta     90
_cell_angle_gamma    90

_space_group_name_H-M_alt    "P 1"
_space_group_IT_number       1

loop_
  _space_group_symop_operation_xyz
  'x, y, z'

loop_
  _atom_site_type_symbol
  _atom_site_label
  _atom_site_symmetry_multiplicity
  _atom_site_fract_x
  _atom_site_fract_y
  _atom_site_fract_z
  _atom_site_occupancy
  C   C1        1.0  0.25000  0.55502  0.00000  1.0000
  C   C2        1.0  0.75000  0.05477  0.00000  1.0000
  C   C3        1.0  0.25000  0.37882  0.50000  1.0000
  C   C4        1.0  0.75000  0.87857  0.50000  1.0000
  F   F1        1.0  0.38371  0.74228  0.00000  1.0000
  F   F2        1.0  0.85496  0.74091  0.50000  1.0000
  H   H1        1.0  0.61630  0.24206  0.00000  1.0000
  H   H2        1.0  0.88370  0.24206  0.00000  1.0000
  H   H3        1.0  0.11629  0.74228  0.00000  1.0000
  H   H4        1.0  0.35496  0.24115  0.50000  1.0000
  H   H5        1.0  0.14504  0.24115  0.50000  1.0000
  H   H6        1.0  0.64504  0.74091  0.50000  1.0000
