data_image0
_chemical_formula_structural       C4F2H6
_chemical_formula_sum              "C4 F2 H6"
_cell_length_a       8.58
_cell_length_b       4.91
_cell_length_c       2.55286
_cell_angle_alpha    90
_cell_angle_beta     90
_cell_angle_gamma    90

_space_group_name_H-M_alt    "P 1"
_space_group_IT_number       1

loop_
  _space_group_symop_operation_xyz
  'x, y, z'

loop_
  _atom_site_type_symbol
  _atom_site_label
  _atom_site_symmetry_multiplicity
  _atom_site_fract_x
  _atom_site_fract_y
  _atom_site_fract_z
  _atom_site_occupancy
  C   C1        1.0  0.02926  0.06600  0.25116  1.0000
  C   C2        1.0  0.95722  0.93732  0.75716  1.0000
  C   C3        1.0  0.46706  0.58272  0.74390  1.0000
  C   C4        1.0  0.52903  0.44000  0.23886  1.0000
  F   F1        1.0  0.20117  0.02317  0.24600  1.0000
  F   F2        1.0  0.49316  0.14340  0.20913  1.0000
  H   H1        1.0  0.00441  0.28369  0.25550  1.0000
  H   H2        1.0  0.83142  0.96810  0.76153  1.0000
  H   H3        1.0  0.98238  0.71974  0.75219  1.0000
  H   H4        1.0  0.34141  0.55427  0.71779  1.0000
  H   H5        1.0  0.49327  0.79985  0.76565  1.0000
  H   H6        1.0  0.65473  0.46811  0.26445  1.0000
